LTspice 24.0.9 for Windows
Circuit: * C:\Users\Owner\Desktop\my_program\kyo-pro\40_LTspice\sample_circuit\sample.asc
Start Time: Fri Jun 20 22:16:48 2025
solver = Normal
Maximum thread count: 8
tnom = 27
temp = 27
method = modified trap
.OP point found by inspection.
Total elapsed time: 0.092 seconds.

